STAAD SPACE
START JOB INFORMATION
ENGINEER DATE 02-Apr-26
END JOB INFORMATION
INPUT WIDTH 79
UNIT METER KN

JOINT COORDINATES
1 0.000 0.000 0.000;
2 0.000 0.000 6.000;
3 5.000 0.000 6.500;
4 25.000 0.000 8.500;
5 45.000 0.000 6.500;
6 50.000 0.000 6.000;
7 50.000 0.000 0.000;
8 6.250 0.000 0.000;
9 6.250 0.000 6.625;
10 12.500 0.000 0.000;
11 12.500 0.000 7.250;
12 18.750 0.000 0.000;
13 18.750 0.000 7.875;
14 25.000 0.000 0.000;
15 31.250 0.000 0.000;
16 31.250 0.000 7.875;
17 37.500 0.000 0.000;
18 37.500 0.000 7.250;
19 43.750 0.000 0.000;
20 43.750 0.000 6.625;
# ... 1102 like lines cut

MEMBER INCIDENCES
1 1 2;
2 7 6;
3 2 3;
4 3 4;
5 5 4;
6 6 5;
7 8 9;
8 10 11;
9 12 13;
10 14 4;
11 15 16;
12 17 18;
13 19 20;
14 21 23;
15 22 24;
16 2 25;
17 26 25;
18 27 28;
19 33 32;
20 28 29;
# ... 1127 like lines cut

DEFINE MATERIAL START
ISOTROPIC STEEL
E 2.05e+008
POISSON 0.3
DENSITY 76.8195
ALPHA 1.2e-005
END DEFINE MATERIAL

MEMBER PROPERTY AMERICAN
1 2 18 19 26 27 36 37 44 45 54 55 62 63 72 73 80 81 90 91 TAPERED 0.300 0.006 0.400 0.200 0.010 0.200 0.010
98 99 108 109 116 117 126 127 134 135 144 145 152 153 162 163 170 171 180 181 TAPERED 0.300 0.006 0.400 0.200 0.010 0.200 0.010
188 189 198 199 206 207 216 217 TAPERED 0.300 0.006 0.400 0.200 0.010 0.200 0.010
4 5 21 22 29 30 39 40 47 48 57 58 65 66 75 76 83 84 93 94 TAPERED 0.500 0.006 0.300 0.225 0.010 0.225 0.010
101 102 111 112 119 120 129 130 137 138 147 148 155 156 165 166 173 174 183 184 TAPERED 0.500 0.006 0.300 0.225 0.010 0.225 0.010
191 192 201 202 209 210 219 220 TAPERED 0.500 0.006 0.300 0.225 0.010 0.225 0.010
3 6 20 23 28 31 38 41 46 49 56 59 64 67 74 77 82 85 92 95 TAPERED 0.300 0.006 0.600 0.250 0.010 0.250 0.010
100 103 110 113 118 121 128 131 136 139 146 149 154 157 164 167 172 175 182 185 TAPERED 0.300 0.006 0.600 0.250 0.010 0.250 0.010
190 193 200 203 208 211 218 221 TAPERED 0.300 0.006 0.600 0.250 0.010 0.250 0.010
7 8 9 10 11 12 13 222 223 224 225 226 227 228 313 314 315 TABLE ST WB200
231 232 233 234 235 236 237 238 239 240 241 242 243 244 245 246 247 248 249 250 TABLE ST 200X65X15NB
251 252 253 254 255 256 257 258 259 260 261 262 263 278 279 280 281 282 283 284 TABLE ST 200X65X15NB
285 286 287 288 289 290 291 292 293 294 295 296 297 298 299 300 301 302 303 304 TABLE ST 200X65X15NB
305 306 307 308 309 310 320 321 322 323 324 325 326 327 328 329 330 331 332 333 TABLE ST 200X65X15NB
334 335 336 337 338 339 340 341 342 343 344 345 346 347 348 349 350 351 352 359 TABLE ST 200X65X15NB
360 361 362 363 364 365 366 367 368 369 370 371 372 373 374 375 376 377 378 379 TABLE ST 200X65X15NB
380 381 382 383 384 385 386 387 388 389 390 391 398 399 400 401 402 403 404 405 TABLE ST 200X65X15NB
406 407 408 409 410 411 412 413 414 415 416 417 418 419 420 421 422 423 424 425 TABLE ST 200X65X15NB
426 427 428 429 430 437 438 439 440 441 442 443 444 445 446 447 448 449 450 451 TABLE ST 200X65X15NB
452 453 454 455 456 457 458 459 460 461 462 463 464 465 466 467 468 469 476 477 TABLE ST 200X65X15NB
478 479 480 481 482 483 484 485 486 487 488 489 490 491 492 493 494 495 496 497 TABLE ST 200X65X15NB
498 499 500 501 502 503 504 505 506 507 508 515 516 517 518 519 520 521 522 523 TABLE ST 200X65X15NB
524 525 526 527 528 529 530 531 532 533 534 535 536 537 538 539 540 541 542 543 TABLE ST 200X65X15NB
544 545 546 547 554 555 556 557 558 559 560 561 562 563 564 565 566 567 568 569 TABLE ST 200X65X15NB
570 571 572 573 574 575 576 577 578 579 580 581 582 583 584 585 586 593 594 595 TABLE ST 200X65X15NB
596 597 598 599 600 601 602 603 604 605 606 607 608 609 610 611 612 613 614 615 TABLE ST 200X65X15NB
616 617 618 619 620 621 622 623 624 625 632 633 634 635 636 637 638 639 640 641 TABLE ST 200X65X15NB
642 643 644 645 646 647 648 649 650 651 652 653 654 655 656 657 658 659 660 661 TABLE ST 200X65X15NB
662 663 664 671 672 673 674 675 676 677 678 679 680 681 682 683 684 685 686 687 TABLE ST 200X65X15NB
688 689 690 691 692 693 694 695 696 697 698 699 700 701 702 703 710 711 712 713 TABLE ST 200X65X15NB
# ... 24 like lines cut
268 269 270 271 1137 1138 1139 1140 272 273 274 275 1141 1142 1143 1144 1147 TABLE ST ISA75X75X6
16 34 52 70 88 106 124 142 160 178 196 214 276 277 318 319 357 358 396 397 TABLE ST WB250
435 436 474 475 513 514 552 553 591 592 630 631 669 670 708 709 747 748 786 787 TABLE ST WB250
825 826 864 865 903 904 942 943 981 982 1020 1021 1059 1060 1098 1099 1145 1146 TABLE ST WB250
14 15 24 25 32 33 42 43 50 51 60 61 68 69 78 79 86 87 96 97 TABLE ST WB350
104 105 114 115 122 123 132 133 140 141 150 151 158 159 168 169 176 177 186 187 TABLE ST WB350
194 195 204 205 212 213 229 230 TABLE ST WB350

MEMBER RELEASE
231 232 233 234 235 236 237 238 239 240 241 242 243 244 245 246 247 248 249 250 START MX MY MZ
231 232 233 234 235 236 237 238 239 240 241 242 243 244 245 246 247 248 249 250 END MX MY MZ
251 252 253 254 255 256 257 258 259 260 261 262 263 278 279 280 281 282 283 284 START MX MY MZ
251 252 253 254 255 256 257 258 259 260 261 262 263 278 279 280 281 282 283 284 END MX MY MZ
285 286 287 288 289 290 291 292 293 294 295 296 297 298 299 300 301 302 303 304 START MX MY MZ
285 286 287 288 289 290 291 292 293 294 295 296 297 298 299 300 301 302 303 304 END MX MY MZ
305 306 307 308 309 310 320 321 322 323 324 325 326 327 328 329 330 331 332 333 START MX MY MZ
305 306 307 308 309 310 320 321 322 323 324 325 326 327 328 329 330 331 332 333 END MX MY MZ
334 335 336 337 338 339 340 341 342 343 344 345 346 347 348 349 350 351 352 359 START MX MY MZ
334 335 336 337 338 339 340 341 342 343 344 345 346 347 348 349 350 351 352 359 END MX MY MZ
360 361 362 363 364 365 366 367 368 369 370 371 372 373 374 375 376 377 378 379 START MX MY MZ
360 361 362 363 364 365 366 367 368 369 370 371 372 373 374 375 376 377 378 379 END MX MY MZ
380 381 382 383 384 385 386 387 388 389 390 391 398 399 400 401 402 403 404 405 START MX MY MZ
380 381 382 383 384 385 386 387 388 389 390 391 398 399 400 401 402 403 404 405 END MX MY MZ
406 407 408 409 410 411 412 413 414 415 416 417 418 419 420 421 422 423 424 425 START MX MY MZ
406 407 408 409 410 411 412 413 414 415 416 417 418 419 420 421 422 423 424 425 END MX MY MZ
426 427 428 429 430 437 438 439 440 441 442 443 444 445 446 447 448 449 450 451 START MX MY MZ
426 427 428 429 430 437 438 439 440 441 442 443 444 445 446 447 448 449 450 451 END MX MY MZ
452 453 454 455 456 457 458 459 460 461 462 463 464 465 466 467 468 469 476 477 START MX MY MZ
452 453 454 455 456 457 458 459 460 461 462 463 464 465 466 467 468 469 476 477 END MX MY MZ
478 479 480 481 482 483 484 485 486 487 488 489 490 491 492 493 494 495 496 497 START MX MY MZ
478 479 480 481 482 483 484 485 486 487 488 489 490 491 492 493 494 495 496 497 END MX MY MZ
498 499 500 501 502 503 504 505 506 507 508 515 516 517 518 519 520 521 522 523 START MX MY MZ
498 499 500 501 502 503 504 505 506 507 508 515 516 517 518 519 520 521 522 523 END MX MY MZ
524 525 526 527 528 529 530 531 532 533 534 535 536 537 538 539 540 541 542 543 START MX MY MZ
524 525 526 527 528 529 530 531 532 533 534 535 536 537 538 539 540 541 542 543 END MX MY MZ
544 545 546 547 554 555 556 557 558 559 560 561 562 563 564 565 566 567 568 569 START MX MY MZ
544 545 546 547 554 555 556 557 558 559 560 561 562 563 564 565 566 567 568 569 END MX MY MZ
570 571 572 573 574 575 576 577 578 579 580 581 582 583 584 585 586 593 594 595 START MX MY MZ
570 571 572 573 574 575 576 577 578 579 580 581 582 583 584 585 586 593 594 595 END MX MY MZ
596 597 598 599 600 601 602 603 604 605 606 607 608 609 610 611 612 613 614 615 START MX MY MZ
596 597 598 599 600 601 602 603 604 605 606 607 608 609 610 611 612 613 614 615 END MX MY MZ
616 617 618 619 620 621 622 623 624 625 632 633 634 635 636 637 638 639 640 641 START MX MY MZ
616 617 618 619 620 621 622 623 624 625 632 633 634 635 636 637 638 639 640 641 END MX MY MZ
642 643 644 645 646 647 648 649 650 651 652 653 654 655 656 657 658 659 660 661 START MX MY MZ
642 643 644 645 646 647 648 649 650 651 652 653 654 655 656 657 658 659 660 661 END MX MY MZ
662 663 664 671 672 673 674 675 676 677 678 679 680 681 682 683 684 685 686 687 START MX MY MZ
662 663 664 671 672 673 674 675 676 677 678 679 680 681 682 683 684 685 686 687 END MX MY MZ
688 689 690 691 692 693 694 695 696 697 698 699 700 701 702 703 710 711 712 713 START MX MY MZ
688 689 690 691 692 693 694 695 696 697 698 699 700 701 702 703 710 711 712 713 END MX MY MZ
# ... 50 like lines cut

SUPPORTS
8 10 12 14 15 17 19 298 300 302 304 305 307 309 PINNED
1 7 27 33 38 44 51 57 62 68 75 81 86 92 99 105 110 116 123 129 134 140 147 153 158 164 171 177 182 188 195 201 206 212 219 225 230 236 243 249 254 260 267 273 278 284 291 297 FIXED

LOAD 1 TITLE DEAD LOAD
MEMBER LOAD
4 5 21 22 29 30 39 40 47 48 57 58 65 66 75 76 83 84 93 94 UNI GY -1.040
101 102 111 112 119 120 129 130 137 138 147 148 155 156 165 166 173 174 183 184 UNI GY -1.040
191 192 201 202 209 210 219 220 3 6 20 23 28 31 38 41 46 49 56 59 UNI GY -1.040
64 67 74 77 82 85 92 95 100 103 110 113 118 121 128 131 136 139 146 149 UNI GY -1.040
154 157 164 167 172 175 182 185 190 193 200 203 208 211 218 221 231 232 233 234 UNI GY -1.040
235 236 237 238 239 240 241 242 243 244 245 246 247 248 249 250 251 252 253 254 UNI GY -1.040
255 256 257 258 259 260 261 262 263 278 279 280 281 282 283 284 285 286 287 288 UNI GY -1.040
289 290 291 292 293 294 295 296 297 298 299 300 301 302 303 304 305 306 307 308 UNI GY -1.040
309 310 320 321 322 323 324 325 326 327 328 329 330 331 332 333 334 335 336 337 UNI GY -1.040
338 339 340 341 342 343 344 345 346 347 348 349 350 351 352 359 360 361 362 363 UNI GY -1.040
364 365 366 367 368 369 370 371 372 373 374 375 376 377 378 379 380 381 382 383 UNI GY -1.040
384 385 386 387 388 389 390 391 398 399 400 401 402 403 404 405 406 407 408 409 UNI GY -1.040
410 411 412 413 414 415 416 417 418 419 420 421 422 423 424 425 426 427 428 429 UNI GY -1.040
430 437 438 439 440 441 442 443 444 445 446 447 448 449 450 451 452 453 454 455 UNI GY -1.040
456 457 458 459 460 461 462 463 464 465 466 467 468 469 476 477 478 479 480 481 UNI GY -1.040
482 483 484 485 486 487 488 489 490 491 492 493 494 495 496 497 498 499 500 501 UNI GY -1.040
502 503 504 505 506 507 508 515 516 517 518 519 520 521 522 523 524 525 526 527 UNI GY -1.040
528 529 530 531 532 533 534 535 536 537 538 539 540 541 542 543 544 545 546 547 UNI GY -1.040
554 555 556 557 558 559 560 561 562 563 564 565 566 567 568 569 570 571 572 573 UNI GY -1.040
574 575 576 577 578 579 580 581 582 583 584 585 586 593 594 595 596 597 598 599 UNI GY -1.040
# ... 23 like lines cut

LOAD 2 TITLE LIVE LOAD
MEMBER LOAD
4 5 21 22 29 30 39 40 47 48 57 58 65 66 75 76 83 84 93 94 UNI GY -3.952
101 102 111 112 119 120 129 130 137 138 147 148 155 156 165 166 173 174 183 184 UNI GY -3.952
191 192 201 202 209 210 219 220 3 6 20 23 28 31 38 41 46 49 56 59 UNI GY -3.952
64 67 74 77 82 85 92 95 100 103 110 113 118 121 128 131 136 139 146 149 UNI GY -3.952
154 157 164 167 172 175 182 185 190 193 200 203 208 211 218 221 231 232 233 234 UNI GY -3.952
235 236 237 238 239 240 241 242 243 244 245 246 247 248 249 250 251 252 253 254 UNI GY -3.952
255 256 257 258 259 260 261 262 263 278 279 280 281 282 283 284 285 286 287 288 UNI GY -3.952
289 290 291 292 293 294 295 296 297 298 299 300 301 302 303 304 305 306 307 308 UNI GY -3.952
309 310 320 321 322 323 324 325 326 327 328 329 330 331 332 333 334 335 336 337 UNI GY -3.952
338 339 340 341 342 343 344 345 346 347 348 349 350 351 352 359 360 361 362 363 UNI GY -3.952
364 365 366 367 368 369 370 371 372 373 374 375 376 377 378 379 380 381 382 383 UNI GY -3.952
384 385 386 387 388 389 390 391 398 399 400 401 402 403 404 405 406 407 408 409 UNI GY -3.952
410 411 412 413 414 415 416 417 418 419 420 421 422 423 424 425 426 427 428 429 UNI GY -3.952
430 437 438 439 440 441 442 443 444 445 446 447 448 449 450 451 452 453 454 455 UNI GY -3.952
456 457 458 459 460 461 462 463 464 465 466 467 468 469 476 477 478 479 480 481 UNI GY -3.952
482 483 484 485 486 487 488 489 490 491 492 493 494 495 496 497 498 499 500 501 UNI GY -3.952
502 503 504 505 506 507 508 515 516 517 518 519 520 521 522 523 524 525 526 527 UNI GY -3.952
528 529 530 531 532 533 534 535 536 537 538 539 540 541 542 543 544 545 546 547 UNI GY -3.952
554 555 556 557 558 559 560 561 562 563 564 565 566 567 568 569 570 571 572 573 UNI GY -3.952
574 575 576 577 578 579 580 581 582 583 584 585 586 593 594 595 596 597 598 599 UNI GY -3.952
# ... 23 like lines cut

LOAD 3 TITLE WIND +X
MEMBER LOAD
1 2 18 19 26 27 36 37 44 45 54 55 62 63 72 73 80 81 90 91 UNI GX 7.280
98 99 108 109 116 117 126 127 134 135 144 145 152 153 162 163 170 171 180 181 UNI GX 7.280
188 189 198 199 206 207 216 217 UNI GX 7.280

LOAD 4 TITLE WIND -X
MEMBER LOAD
1 2 18 19 26 27 36 37 44 45 54 55 62 63 72 73 80 81 90 91 UNI GX -7.280
98 99 108 109 116 117 126 127 134 135 144 145 152 153 162 163 170 171 180 181 UNI GX -7.280
188 189 198 199 206 207 216 217 UNI GX -7.280

LOAD 5 TITLE WIND +Z
MEMBER LOAD
7 8 9 10 11 12 13 222 223 224 225 226 227 228 UNI GZ 7.280

LOAD 6 TITLE WIND -Z
MEMBER LOAD
7 8 9 10 11 12 13 222 223 224 225 226 227 228 UNI GZ -7.280

LOAD 7 TITLE WIND UPLIFT
MEMBER LOAD
4 5 21 22 29 30 39 40 47 48 57 58 65 66 75 76 83 84 93 94 UNI GY 5.200
101 102 111 112 119 120 129 130 137 138 147 148 155 156 165 166 173 174 183 184 UNI GY 5.200
191 192 201 202 209 210 219 220 3 6 20 23 28 31 38 41 46 49 56 59 UNI GY 5.200
64 67 74 77 82 85 92 95 100 103 110 113 118 121 128 131 136 139 146 149 UNI GY 5.200
154 157 164 167 172 175 182 185 190 193 200 203 208 211 218 221 UNI GY 5.200

LOAD 8 TITLE SEISMIC +X
MEMBER LOAD
1 2 18 19 26 27 36 37 44 45 54 55 62 63 72 73 80 81 90 91 UNI GX 9.984
98 99 108 109 116 117 126 127 134 135 144 145 152 153 162 163 170 171 180 181 UNI GX 9.984
188 189 198 199 206 207 216 217 UNI GX 9.984

LOAD 9 TITLE SEISMIC +Z
MEMBER LOAD
7 8 9 10 11 12 13 222 223 224 225 226 227 228 UNI GZ 9.984

LOAD 11 TITLE CRANE VERTICAL
MEMBER LOAD
276 277 318 319 357 358 396 397 435 436 474 475 513 514 552 553 591 592 630 631 UNI GY -4.245
669 670 708 709 747 748 786 787 825 826 864 865 903 904 942 943 981 982 1020 1021 UNI GY -4.245
1059 1060 1098 1099 1145 1146 UNI GY -4.245

LOAD 12 TITLE CRANE SURGE
MEMBER LOAD
276 277 318 319 357 358 396 397 435 436 474 475 513 514 552 553 591 592 630 631 UNI GX 0.425
669 670 708 709 747 748 786 787 825 826 864 865 903 904 942 943 981 982 1020 1021 UNI GX 0.425
1059 1060 1098 1099 1145 1146 UNI GX 0.425

LOAD COMBINATION
101 1.4 DL
1 1.4
102 1.2 DL + 1.6 LL
1 1.2 2 1.6
103 1.2 DL + 1.0 WLX + 0.5 LL
1 1.2 3 1.0 2 0.5
104 1.2 DL - 1.0 WLX + 0.5 LL
1 1.2 4 1.0 2 0.5
105 1.2 DL + 1.0 WLZ + 0.5 LL
1 1.2 5 1.0 2 0.5
106 0.9 DL + 1.0 WLX
1 0.9 3 1.0
107 1.2 DL + 1.0 EQX + 0.5 LL
1 1.2 8 1.0 2 0.5
110 1.2(DL + LL + CRANE)
1 1.2 2 1.2 11 1.2 12 1.2

PERFORM ANALYSIS PRINT ALL
PARAMETER 1
CODE AISC
FYLD 345 ALL
TRACK 2 ALL
CHECK CODE ALL
FINISH