STAAD SPACE
START JOB INFORMATION
ENGINEER DATE 02-Apr-26
END JOB INFORMATION
INPUT WIDTH 79
UNIT METER KN

JOINT COORDINATES
1 0.000 0.000 0.000;
2 0.000 0.000 6.000;
3 3.000 0.000 6.300;
4 15.000 0.000 7.500;
5 27.000 0.000 6.300;
6 30.000 0.000 6.000;
7 30.000 0.000 0.000;
8 6.000 0.000 0.000;
9 6.000 0.000 6.600;
10 12.000 0.000 0.000;
11 12.000 0.000 7.200;
12 18.000 0.000 0.000;
13 18.000 0.000 7.200;
14 24.000 0.000 0.000;
15 24.000 0.000 6.600;
16 -10.000 0.000 5.500;
17 0.000 0.000 3.500;
18 0.000 7.500 0.000;
19 0.000 7.500 6.000;
20 3.000 7.500 6.300;
# ... 185 like lines cut

MEMBER INCIDENCES
1 1 2;
2 7 6;
3 2 3;
4 3 4;
5 5 4;
6 6 5;
7 8 9;
8 10 11;
9 12 13;
10 14 15;
11 2 16;
12 17 16;
13 18 19;
14 24 23;
15 19 20;
16 20 21;
17 22 21;
18 23 22;
19 25 26;
20 31 30;
# ... 204 like lines cut

DEFINE MATERIAL START
ISOTROPIC STEEL
E 2.05e+008
POISSON 0.3
DENSITY 76.8195
ALPHA 1.2e-005
END DEFINE MATERIAL

MEMBER PROPERTY AMERICAN
1 2 13 14 19 20 27 28 33 34 41 42 47 48 TAPERED 0.320 0.006 0.800 0.300 0.010 0.300 0.010
4 5 16 17 22 23 30 31 36 37 44 45 50 51 TAPERED 0.600 0.006 0.300 0.250 0.010 0.250 0.010
3 6 15 18 21 24 29 32 35 38 43 46 49 52 TAPERED 0.300 0.006 0.700 0.275 0.010 0.275 0.010
7 8 9 10 53 54 55 56 TABLE ST WB600
59 60 61 62 63 64 65 66 67 68 69 70 71 72 73 74 75 76 77 78 TABLE ST 200X65X15NB
79 92 93 94 95 96 97 98 99 100 101 102 103 104 105 106 107 108 109 110 TABLE ST 200X65X15NB
111 112 117 118 119 120 121 122 123 124 125 126 127 128 129 130 131 132 133 134 TABLE ST 200X65X15NB
135 136 137 142 143 144 145 146 147 148 149 150 151 152 153 154 155 156 157 158 TABLE ST 200X65X15NB
159 160 161 162 167 168 169 170 171 172 173 174 175 176 177 178 179 180 181 182 TABLE ST 200X65X15NB
183 184 185 186 187 192 193 194 195 196 197 198 199 200 201 202 203 204 205 206 TABLE ST 200X65X15NB
207 208 209 210 211 212 80 81 82 83 113 114 115 116 138 139 140 141 163 164 TABLE ST 200X65X15NB
165 166 188 189 190 191 213 214 215 216 12 26 40 58 TABLE ST 200X65X15NB
84 85 86 87 217 218 219 220 88 89 90 91 221 222 223 224 TABLE ST ISA75X75X6
11 25 39 57 TABLE ST WB250

MEMBER RELEASE
59 60 61 62 63 64 65 66 67 68 69 70 71 72 73 74 75 76 77 78 START MX MY MZ
59 60 61 62 63 64 65 66 67 68 69 70 71 72 73 74 75 76 77 78 END MX MY MZ
79 92 93 94 95 96 97 98 99 100 101 102 103 104 105 106 107 108 109 110 START MX MY MZ
79 92 93 94 95 96 97 98 99 100 101 102 103 104 105 106 107 108 109 110 END MX MY MZ
111 112 117 118 119 120 121 122 123 124 125 126 127 128 129 130 131 132 133 134 START MX MY MZ
111 112 117 118 119 120 121 122 123 124 125 126 127 128 129 130 131 132 133 134 END MX MY MZ
135 136 137 142 143 144 145 146 147 148 149 150 151 152 153 154 155 156 157 158 START MX MY MZ
135 136 137 142 143 144 145 146 147 148 149 150 151 152 153 154 155 156 157 158 END MX MY MZ
159 160 161 162 167 168 169 170 171 172 173 174 175 176 177 178 179 180 181 182 START MX MY MZ
159 160 161 162 167 168 169 170 171 172 173 174 175 176 177 178 179 180 181 182 END MX MY MZ
183 184 185 186 187 192 193 194 195 196 197 198 199 200 201 202 203 204 205 206 START MX MY MZ
183 184 185 186 187 192 193 194 195 196 197 198 199 200 201 202 203 204 205 206 END MX MY MZ
207 208 209 210 211 212 80 81 82 83 113 114 115 116 138 139 140 141 163 164 START MX MY MZ
207 208 209 210 211 212 80 81 82 83 113 114 115 116 138 139 140 141 163 164 END MX MY MZ
165 166 188 189 190 191 213 214 215 216 84 85 86 87 217 218 219 220 88 89 START MX MY MZ
165 166 188 189 190 191 213 214 215 216 84 85 86 87 217 218 219 220 88 89 END MX MY MZ
90 91 221 222 223 224 12 26 40 58 START MX MY MZ
90 91 221 222 223 224 12 26 40 58 END MX MY MZ

SUPPORTS
8 10 12 14 64 66 68 70 PINNED
1 7 18 24 25 31 34 40 41 47 50 56 57 63 FIXED

LOAD 1 TITLE DEAD LOAD
MEMBER LOAD
4 5 16 17 22 23 30 31 36 37 44 45 50 51 3 6 15 18 21 24 UNI GY -7.500
29 32 35 38 43 46 49 52 59 60 61 62 63 64 65 66 67 68 69 70 UNI GY -7.500
71 72 73 74 75 76 77 78 79 92 93 94 95 96 97 98 99 100 101 102 UNI GY -7.500
103 104 105 106 107 108 109 110 111 112 117 118 119 120 121 122 123 124 125 126 UNI GY -7.500
127 128 129 130 131 132 133 134 135 136 137 142 143 144 145 146 147 148 149 150 UNI GY -7.500
151 152 153 154 155 156 157 158 159 160 161 162 167 168 169 170 171 172 173 174 UNI GY -7.500
175 176 177 178 179 180 181 182 183 184 185 186 187 192 193 194 195 196 197 198 UNI GY -7.500
199 200 201 202 203 204 205 206 207 208 209 210 211 212 UNI GY -7.500

LOAD 2 TITLE LIVE LOAD
MEMBER LOAD
4 5 16 17 22 23 30 31 36 37 44 45 50 51 3 6 15 18 21 24 UNI GY -11.250
29 32 35 38 43 46 49 52 59 60 61 62 63 64 65 66 67 68 69 70 UNI GY -11.250
71 72 73 74 75 76 77 78 79 92 93 94 95 96 97 98 99 100 101 102 UNI GY -11.250
103 104 105 106 107 108 109 110 111 112 117 118 119 120 121 122 123 124 125 126 UNI GY -11.250
127 128 129 130 131 132 133 134 135 136 137 142 143 144 145 146 147 148 149 150 UNI GY -11.250
151 152 153 154 155 156 157 158 159 160 161 162 167 168 169 170 171 172 173 174 UNI GY -11.250
175 176 177 178 179 180 181 182 183 184 185 186 187 192 193 194 195 196 197 198 UNI GY -11.250
199 200 201 202 203 204 205 206 207 208 209 210 211 212 UNI GY -11.250

LOAD 3 TITLE WIND +X
MEMBER LOAD
1 2 13 14 19 20 27 28 33 34 41 42 47 48 UNI GX 80.640

LOAD 4 TITLE WIND -X
MEMBER LOAD
1 2 13 14 19 20 27 28 33 34 41 42 47 48 UNI GX -80.640

LOAD 5 TITLE WIND +Z
MEMBER LOAD
7 8 9 10 53 54 55 56 UNI GZ 80.640

LOAD 6 TITLE WIND -Z
MEMBER LOAD
7 8 9 10 53 54 55 56 UNI GZ -80.640

LOAD 7 TITLE WIND UPLIFT
MEMBER LOAD
4 5 16 17 22 23 30 31 36 37 44 45 50 51 3 6 15 18 21 24 UNI GY 57.600
29 32 35 38 43 46 49 52 UNI GY 57.600

LOAD 8 TITLE SEISMIC +X
MEMBER LOAD
1 2 13 14 19 20 27 28 33 34 41 42 47 48 UNI GX 22.500

LOAD 9 TITLE SEISMIC +Z
MEMBER LOAD
7 8 9 10 53 54 55 56 UNI GZ 22.500

LOAD COMBINATION
101 1.4 DL
1 1.4
102 1.2 DL + 1.6 LL
1 1.2 2 1.6
103 1.2 DL + 1.0 WLX + 0.5 LL
1 1.2 3 1.0 2 0.5
104 1.2 DL - 1.0 WLX + 0.5 LL
1 1.2 4 1.0 2 0.5
105 1.2 DL + 1.0 WLZ + 0.5 LL
1 1.2 5 1.0 2 0.5
106 0.9 DL + 1.0 WLX
1 0.9 3 1.0
107 1.2 DL + 1.0 EQX + 0.5 LL
1 1.2 8 1.0 2 0.5

PERFORM ANALYSIS PRINT ALL
PARAMETER 1
CODE AISC
FYLD 345 ALL
TRACK 2 ALL
CHECK CODE ALL
FINISH