STAAD SPACE
START JOB INFORMATION
ENGINEER DATE 02-Apr-26
END JOB INFORMATION
INPUT WIDTH 79
UNIT METER KN

JOINT COORDINATES
1 0.000 0.000 0.000;
2 0.000 0.000 15.100;
3 5.250 0.000 15.625;
4 26.250 0.000 25.625;
5 47.250 0.000 23.525;
6 52.500 0.000 23.000;
7 52.500 0.000 0.000;
8 6.562 0.000 0.000;
9 6.562 0.000 17.731;
10 13.125 0.000 0.000;
11 13.125 0.000 20.363;
12 19.688 0.000 0.000;
13 19.688 0.000 22.994;
14 26.250 0.000 0.000;
15 32.812 0.000 0.000;
16 32.812 0.000 24.969;
17 39.375 0.000 0.000;
18 39.375 0.000 24.312;
19 45.938 0.000 0.000;
20 45.938 0.000 23.656;
# ... 726 like lines cut

MEMBER INCIDENCES
1 1 2;
2 7 6;
3 2 3;
4 3 4;
5 5 4;
6 6 5;
7 8 9;
8 10 11;
9 12 13;
10 14 4;
11 15 16;
12 17 18;
13 19 20;
14 2 21;
15 22 21;
16 23 24;
17 29 28;
18 24 25;
19 25 26;
20 27 26;
# ... 694 like lines cut

DEFINE MATERIAL START
ISOTROPIC STEEL
E 2.05e+008
POISSON 0.3
DENSITY 76.8195
ALPHA 1.2e-005
END DEFINE MATERIAL

MEMBER PROPERTY AMERICAN
1 2 16 17 22 23 30 31 36 37 44 45 50 51 58 59 64 65 72 73 TAPERED 0.300 0.006 0.400 0.200 0.010 0.200 0.010
4 5 19 20 25 26 33 34 39 40 47 48 53 54 61 62 67 68 75 76 TAPERED 0.700 0.006 0.300 0.275 0.010 0.275 0.010
3 6 18 21 24 27 32 35 38 41 46 49 52 55 60 63 66 69 74 77 TAPERED 0.320 0.006 0.800 0.300 0.010 0.300 0.010
7 8 9 10 11 12 13 78 79 80 81 82 83 84 535 536 537 538 539 540 TABLE ST WB300
541 542 543 544 545 546 547 548 549 550 551 552 553 554 555 556 557 558 559 560 TABLE ST WB300
561 562 563 564 565 566 567 568 569 570 571 572 573 574 575 576 577 578 579 580 TABLE ST WB300
581 582 583 584 585 586 587 588 589 590 591 592 593 594 595 596 597 598 599 600 TABLE ST WB300
601 602 603 604 605 606 607 608 609 610 611 612 613 614 615 616 617 618 619 620 TABLE ST WB300
621 622 623 624 625 626 627 628 629 630 631 632 633 634 635 636 637 638 639 640 TABLE ST WB300
641 642 643 644 645 646 647 648 649 650 651 652 653 654 655 656 657 658 659 660 TABLE ST WB300
661 662 663 664 665 666 667 668 669 670 671 672 673 674 675 676 677 678 679 680 TABLE ST WB300
681 682 683 684 685 686 687 688 689 690 691 692 693 694 695 696 697 698 699 700 TABLE ST WB300
701 702 703 704 705 706 707 708 709 710 711 712 713 714 TABLE ST WB300
85 86 87 88 89 90 91 92 93 94 95 96 97 98 99 100 101 102 103 104 TABLE ST 200X65X15NB
105 106 107 108 109 110 111 112 113 114 115 116 117 118 119 140 141 142 143 144 TABLE ST 200X65X15NB
145 146 147 148 149 150 151 152 153 154 155 156 157 158 159 160 161 162 163 164 TABLE ST 200X65X15NB
165 166 167 168 169 170 171 172 173 174 187 188 189 190 191 192 193 194 195 196 TABLE ST 200X65X15NB
197 198 199 200 201 202 203 204 205 206 207 208 209 210 211 212 213 214 215 216 TABLE ST 200X65X15NB
217 218 219 220 221 234 235 236 237 238 239 240 241 242 243 244 245 246 247 248 TABLE ST 200X65X15NB
249 250 251 252 253 254 255 256 257 258 259 260 261 262 263 264 265 266 267 268 TABLE ST 200X65X15NB
281 282 283 284 285 286 287 288 289 290 291 292 293 294 295 296 297 298 299 300 TABLE ST 200X65X15NB
301 302 303 304 305 306 307 308 309 310 311 312 313 314 315 328 329 330 331 332 TABLE ST 200X65X15NB
333 334 335 336 337 338 339 340 341 342 343 344 345 346 347 348 349 350 351 352 TABLE ST 200X65X15NB
353 354 355 356 357 358 359 360 361 362 375 376 377 378 379 380 381 382 383 384 TABLE ST 200X65X15NB
385 386 387 388 389 390 391 392 393 394 395 396 397 398 399 400 401 402 403 404 TABLE ST 200X65X15NB
405 406 407 408 409 422 423 424 425 426 427 428 429 430 431 432 433 434 435 436 TABLE ST 200X65X15NB
437 438 439 440 441 442 443 444 445 446 447 448 449 450 451 452 453 454 455 456 TABLE ST 200X65X15NB
469 470 471 472 473 474 475 476 477 478 479 480 481 482 483 484 485 486 487 488 TABLE ST 200X65X15NB
489 490 491 492 493 494 495 496 497 498 499 500 501 502 503 120 121 122 123 124 TABLE ST 200X65X15NB
125 126 127 128 129 130 131 175 176 177 178 179 180 181 182 183 184 185 186 222 TABLE ST 200X65X15NB
223 224 225 226 227 228 229 230 231 232 233 269 270 271 272 273 274 275 276 277 TABLE ST 200X65X15NB
278 279 280 316 317 318 319 320 321 322 323 324 325 326 327 363 364 365 366 367 TABLE ST 200X65X15NB
368 369 370 371 372 373 374 410 411 412 413 414 415 416 417 418 419 420 421 457 TABLE ST 200X65X15NB
458 459 460 461 462 463 464 465 466 467 468 504 505 506 507 508 509 510 511 512 TABLE ST 200X65X15NB
513 514 515 15 29 43 57 71 TABLE ST 200X65X15NB
132 133 134 135 516 517 518 519 136 137 138 139 520 521 522 523 524 TABLE ST ISA75X75X6
14 28 42 56 70 TABLE ST WB250
525 526 527 528 529 530 531 532 533 534 TABLE ST WB400

MEMBER RELEASE
85 86 87 88 89 90 91 92 93 94 95 96 97 98 99 100 101 102 103 104 START MX MY MZ
85 86 87 88 89 90 91 92 93 94 95 96 97 98 99 100 101 102 103 104 END MX MY MZ
105 106 107 108 109 110 111 112 113 114 115 116 117 118 119 140 141 142 143 144 START MX MY MZ
105 106 107 108 109 110 111 112 113 114 115 116 117 118 119 140 141 142 143 144 END MX MY MZ
145 146 147 148 149 150 151 152 153 154 155 156 157 158 159 160 161 162 163 164 START MX MY MZ
145 146 147 148 149 150 151 152 153 154 155 156 157 158 159 160 161 162 163 164 END MX MY MZ
165 166 167 168 169 170 171 172 173 174 187 188 189 190 191 192 193 194 195 196 START MX MY MZ
165 166 167 168 169 170 171 172 173 174 187 188 189 190 191 192 193 194 195 196 END MX MY MZ
197 198 199 200 201 202 203 204 205 206 207 208 209 210 211 212 213 214 215 216 START MX MY MZ
197 198 199 200 201 202 203 204 205 206 207 208 209 210 211 212 213 214 215 216 END MX MY MZ
217 218 219 220 221 234 235 236 237 238 239 240 241 242 243 244 245 246 247 248 START MX MY MZ
217 218 219 220 221 234 235 236 237 238 239 240 241 242 243 244 245 246 247 248 END MX MY MZ
249 250 251 252 253 254 255 256 257 258 259 260 261 262 263 264 265 266 267 268 START MX MY MZ
249 250 251 252 253 254 255 256 257 258 259 260 261 262 263 264 265 266 267 268 END MX MY MZ
281 282 283 284 285 286 287 288 289 290 291 292 293 294 295 296 297 298 299 300 START MX MY MZ
281 282 283 284 285 286 287 288 289 290 291 292 293 294 295 296 297 298 299 300 END MX MY MZ
301 302 303 304 305 306 307 308 309 310 311 312 313 314 315 328 329 330 331 332 START MX MY MZ
301 302 303 304 305 306 307 308 309 310 311 312 313 314 315 328 329 330 331 332 END MX MY MZ
333 334 335 336 337 338 339 340 341 342 343 344 345 346 347 348 349 350 351 352 START MX MY MZ
333 334 335 336 337 338 339 340 341 342 343 344 345 346 347 348 349 350 351 352 END MX MY MZ
353 354 355 356 357 358 359 360 361 362 375 376 377 378 379 380 381 382 383 384 START MX MY MZ
353 354 355 356 357 358 359 360 361 362 375 376 377 378 379 380 381 382 383 384 END MX MY MZ
385 386 387 388 389 390 391 392 393 394 395 396 397 398 399 400 401 402 403 404 START MX MY MZ
385 386 387 388 389 390 391 392 393 394 395 396 397 398 399 400 401 402 403 404 END MX MY MZ
405 406 407 408 409 422 423 424 425 426 427 428 429 430 431 432 433 434 435 436 START MX MY MZ
405 406 407 408 409 422 423 424 425 426 427 428 429 430 431 432 433 434 435 436 END MX MY MZ
437 438 439 440 441 442 443 444 445 446 447 448 449 450 451 452 453 454 455 456 START MX MY MZ
437 438 439 440 441 442 443 444 445 446 447 448 449 450 451 452 453 454 455 456 END MX MY MZ
469 470 471 472 473 474 475 476 477 478 479 480 481 482 483 484 485 486 487 488 START MX MY MZ
469 470 471 472 473 474 475 476 477 478 479 480 481 482 483 484 485 486 487 488 END MX MY MZ
489 490 491 492 493 494 495 496 497 498 499 500 501 502 503 120 121 122 123 124 START MX MY MZ
489 490 491 492 493 494 495 496 497 498 499 500 501 502 503 120 121 122 123 124 END MX MY MZ
125 126 127 128 129 130 131 175 176 177 178 179 180 181 182 183 184 185 186 222 START MX MY MZ
125 126 127 128 129 130 131 175 176 177 178 179 180 181 182 183 184 185 186 222 END MX MY MZ
223 224 225 226 227 228 229 230 231 232 233 269 270 271 272 273 274 275 276 277 START MX MY MZ
223 224 225 226 227 228 229 230 231 232 233 269 270 271 272 273 274 275 276 277 END MX MY MZ
278 279 280 316 317 318 319 320 321 322 323 324 325 326 327 363 364 365 366 367 START MX MY MZ
278 279 280 316 317 318 319 320 321 322 323 324 325 326 327 363 364 365 366 367 END MX MY MZ
368 369 370 371 372 373 374 410 411 412 413 414 415 416 417 418 419 420 421 457 START MX MY MZ
368 369 370 371 372 373 374 410 411 412 413 414 415 416 417 418 419 420 421 457 END MX MY MZ
458 459 460 461 462 463 464 465 466 467 468 504 505 506 507 508 509 510 511 512 START MX MY MZ
458 459 460 461 462 463 464 465 466 467 468 504 505 506 507 508 509 510 511 512 END MX MY MZ
513 514 515 132 133 134 135 516 517 518 519 136 137 138 139 520 521 522 523 15 START MX MY MZ
513 514 515 132 133 134 135 516 517 518 519 136 137 138 139 520 521 522 523 15 END MX MY MZ
29 43 57 71 START MX MY MZ
29 43 57 71 END MX MY MZ

SUPPORTS
8 10 12 14 15 17 19 94 96 98 100 101 103 105 PINNED
1 7 23 29 30 36 39 45 46 52 55 61 62 68 71 77 78 84 87 93 FIXED

LOAD 1 TITLE DEAD LOAD
MEMBER LOAD
4 5 19 20 25 26 33 34 39 40 47 48 53 54 61 62 67 68 75 76 UNI GY -1.597
3 6 18 21 24 27 32 35 38 41 46 49 52 55 60 63 66 69 74 77 UNI GY -1.597
85 86 87 88 89 90 91 92 93 94 95 96 97 98 99 100 101 102 103 104 UNI GY -1.597
105 106 107 108 109 110 111 112 113 114 115 116 117 118 119 140 141 142 143 144 UNI GY -1.597
145 146 147 148 149 150 151 152 153 154 155 156 157 158 159 160 161 162 163 164 UNI GY -1.597
165 166 167 168 169 170 171 172 173 174 187 188 189 190 191 192 193 194 195 196 UNI GY -1.597
197 198 199 200 201 202 203 204 205 206 207 208 209 210 211 212 213 214 215 216 UNI GY -1.597
217 218 219 220 221 234 235 236 237 238 239 240 241 242 243 244 245 246 247 248 UNI GY -1.597
249 250 251 252 253 254 255 256 257 258 259 260 261 262 263 264 265 266 267 268 UNI GY -1.597
281 282 283 284 285 286 287 288 289 290 291 292 293 294 295 296 297 298 299 300 UNI GY -1.597
301 302 303 304 305 306 307 308 309 310 311 312 313 314 315 328 329 330 331 332 UNI GY -1.597
333 334 335 336 337 338 339 340 341 342 343 344 345 346 347 348 349 350 351 352 UNI GY -1.597
353 354 355 356 357 358 359 360 361 362 375 376 377 378 379 380 381 382 383 384 UNI GY -1.597
385 386 387 388 389 390 391 392 393 394 395 396 397 398 399 400 401 402 403 404 UNI GY -1.597
405 406 407 408 409 422 423 424 425 426 427 428 429 430 431 432 433 434 435 436 UNI GY -1.597
437 438 439 440 441 442 443 444 445 446 447 448 449 450 451 452 453 454 455 456 UNI GY -1.597
469 470 471 472 473 474 475 476 477 478 479 480 481 482 483 484 485 486 487 488 UNI GY -1.597
489 490 491 492 493 494 495 496 497 498 499 500 501 502 503 UNI GY -1.597

LOAD 2 TITLE LIVE LOAD
MEMBER LOAD
4 5 19 20 25 26 33 34 39 40 47 48 53 54 61 62 67 68 75 76 UNI GY -6.071
3 6 18 21 24 27 32 35 38 41 46 49 52 55 60 63 66 69 74 77 UNI GY -6.071
85 86 87 88 89 90 91 92 93 94 95 96 97 98 99 100 101 102 103 104 UNI GY -6.071
105 106 107 108 109 110 111 112 113 114 115 116 117 118 119 140 141 142 143 144 UNI GY -6.071
145 146 147 148 149 150 151 152 153 154 155 156 157 158 159 160 161 162 163 164 UNI GY -6.071
165 166 167 168 169 170 171 172 173 174 187 188 189 190 191 192 193 194 195 196 UNI GY -6.071
197 198 199 200 201 202 203 204 205 206 207 208 209 210 211 212 213 214 215 216 UNI GY -6.071
217 218 219 220 221 234 235 236 237 238 239 240 241 242 243 244 245 246 247 248 UNI GY -6.071
249 250 251 252 253 254 255 256 257 258 259 260 261 262 263 264 265 266 267 268 UNI GY -6.071
281 282 283 284 285 286 287 288 289 290 291 292 293 294 295 296 297 298 299 300 UNI GY -6.071
301 302 303 304 305 306 307 308 309 310 311 312 313 314 315 328 329 330 331 332 UNI GY -6.071
333 334 335 336 337 338 339 340 341 342 343 344 345 346 347 348 349 350 351 352 UNI GY -6.071
353 354 355 356 357 358 359 360 361 362 375 376 377 378 379 380 381 382 383 384 UNI GY -6.071
385 386 387 388 389 390 391 392 393 394 395 396 397 398 399 400 401 402 403 404 UNI GY -6.071
405 406 407 408 409 422 423 424 425 426 427 428 429 430 431 432 433 434 435 436 UNI GY -6.071
437 438 439 440 441 442 443 444 445 446 447 448 449 450 451 452 453 454 455 456 UNI GY -6.071
469 470 471 472 473 474 475 476 477 478 479 480 481 482 483 484 485 486 487 488 UNI GY -6.071
489 490 491 492 493 494 495 496 497 498 499 500 501 502 503 UNI GY -6.071

LOAD 3 TITLE WIND +X
MEMBER LOAD
1 2 16 17 22 23 30 31 36 37 44 45 50 51 58 59 64 65 72 73 UNI GX 6.806

LOAD 4 TITLE WIND -X
MEMBER LOAD
1 2 16 17 22 23 30 31 36 37 44 45 50 51 58 59 64 65 72 73 UNI GX -6.806

LOAD 5 TITLE WIND +Z
MEMBER LOAD
7 8 9 10 11 12 13 78 79 80 81 82 83 84 UNI GZ 6.806

LOAD 6 TITLE WIND -Z
MEMBER LOAD
7 8 9 10 11 12 13 78 79 80 81 82 83 84 UNI GZ -6.806

LOAD 7 TITLE WIND UPLIFT
MEMBER LOAD
4 5 19 20 25 26 33 34 39 40 47 48 53 54 61 62 67 68 75 76 UNI GY 4.862
3 6 18 21 24 27 32 35 38 41 46 49 52 55 60 63 66 69 74 77 UNI GY 4.862

LOAD 8 TITLE SEISMIC +X
MEMBER LOAD
1 2 16 17 22 23 30 31 36 37 44 45 50 51 58 59 64 65 72 73 UNI GX 16.103

LOAD 9 TITLE SEISMIC +Z
MEMBER LOAD
7 8 9 10 11 12 13 78 79 80 81 82 83 84 UNI GZ 16.103

LOAD 10 TITLE MEZZANINE LIVE
MEMBER LOAD
525 526 527 528 529 530 531 532 533 534 535 536 537 538 539 540 541 542 543 544 UNI GY -53.250
545 546 547 548 549 550 551 552 553 554 555 556 557 558 559 560 561 562 563 564 UNI GY -53.250
565 566 567 568 569 570 571 572 573 574 575 576 577 578 579 580 581 582 583 584 UNI GY -53.250
585 586 587 588 589 590 591 592 593 594 595 596 597 598 599 600 601 602 603 604 UNI GY -53.250
605 606 607 608 609 610 611 612 613 614 615 616 617 618 619 620 621 622 623 624 UNI GY -53.250
625 626 627 628 629 630 631 632 633 634 635 636 637 638 639 640 641 642 643 644 UNI GY -53.250
645 646 647 648 649 650 651 652 653 654 655 656 657 658 659 660 661 662 663 664 UNI GY -53.250
665 666 667 668 669 670 671 672 673 674 675 676 677 678 679 680 681 682 683 684 UNI GY -53.250
685 686 687 688 689 690 691 692 693 694 695 696 697 698 699 700 701 702 703 704 UNI GY -53.250
705 706 707 708 709 710 711 712 713 714 UNI GY -53.250

LOAD COMBINATION
101 1.4 DL
1 1.4
102 1.2 DL + 1.6 LL
1 1.2 2 1.6
103 1.2 DL + 1.0 WLX + 0.5 LL
1 1.2 3 1.0 2 0.5
104 1.2 DL - 1.0 WLX + 0.5 LL
1 1.2 4 1.0 2 0.5
105 1.2 DL + 1.0 WLZ + 0.5 LL
1 1.2 5 1.0 2 0.5
106 0.9 DL + 1.0 WLX
1 0.9 3 1.0
107 1.2 DL + 1.0 EQX + 0.5 LL
1 1.2 8 1.0 2 0.5
109 1.2(DL + LL + MEZZ)
1 1.2 2 1.2 10 1.2

PERFORM ANALYSIS PRINT ALL
PARAMETER 1
CODE AISC
FYLD 345 ALL
TRACK 2 ALL
CHECK CODE ALL
FINISH