STAAD SPACE
START JOB INFORMATION
ENGINEER DATE 02-Apr-26
END JOB INFORMATION
INPUT WIDTH 79
UNIT METER KN

JOINT COORDINATES
1 0.000 0.000 0.000;
2 0.000 0.000 10.000;
3 5.000 0.000 10.882;
4 25.000 0.000 37.407;
5 45.000 0.000 33.882;
6 50.000 0.000 33.000;
7 50.000 0.000 0.000;
8 6.250 0.000 0.000;
9 6.250 0.000 16.852;
10 12.500 0.000 0.000;
11 12.500 0.000 23.704;
12 18.750 0.000 0.000;
13 18.750 0.000 30.556;
14 25.000 0.000 0.000;
15 31.250 0.000 0.000;
16 31.250 0.000 36.306;
17 37.500 0.000 0.000;
18 37.500 0.000 35.204;
19 43.750 0.000 0.000;
20 43.750 0.000 34.102;
# ... 394 like lines cut

MEMBER INCIDENCES
1 1 2;
2 7 6;
3 2 3;
4 3 4;
5 5 4;
6 6 5;
7 8 9;
8 10 11;
9 12 13;
10 14 4;
11 15 16;
12 17 18;
13 19 20;
14 21 23;
15 22 24;
16 2 25;
17 26 25;
18 27 28;
19 33 32;
20 28 29;
# ... 384 like lines cut

DEFINE MATERIAL START
ISOTROPIC STEEL
E 2.05e+008
POISSON 0.3
DENSITY 76.8195
ALPHA 1.2e-005
END DEFINE MATERIAL

MEMBER PROPERTY AMERICAN
1 2 18 19 26 27 36 37 44 45 54 55 62 63 72 73 TAPERED 0.300 0.006 0.400 0.200 0.010 0.200 0.010
4 5 21 22 29 30 39 40 47 48 57 58 65 66 75 76 TAPERED 0.500 0.006 0.300 0.225 0.010 0.225 0.010
3 6 20 23 28 31 38 41 46 49 56 59 64 67 74 77 TAPERED 0.300 0.006 0.600 0.250 0.010 0.250 0.010
7 8 9 10 11 12 13 78 79 80 81 82 83 84 TABLE ST WB300
87 88 89 90 91 92 93 94 95 96 97 98 99 100 101 102 103 104 105 106 TABLE ST 200X65X15NB
107 108 109 110 111 112 113 114 115 116 117 118 119 138 139 140 141 142 143 144 TABLE ST 200X65X15NB
145 146 147 148 149 150 151 152 153 154 155 156 157 158 159 160 161 162 163 164 TABLE ST 200X65X15NB
165 166 167 168 169 170 181 182 183 184 185 186 187 188 189 190 191 192 193 194 TABLE ST 200X65X15NB
195 196 197 198 199 200 201 202 203 204 205 206 207 208 209 210 211 212 213 224 TABLE ST 200X65X15NB
225 226 227 228 229 230 231 232 233 234 235 236 237 238 239 240 241 242 243 244 TABLE ST 200X65X15NB
245 246 247 248 249 250 251 252 253 254 255 256 267 268 269 270 271 272 273 274 TABLE ST 200X65X15NB
275 276 277 278 279 280 281 282 283 284 285 286 287 288 289 290 291 292 293 294 TABLE ST 200X65X15NB
295 296 297 298 299 310 311 312 313 314 315 316 317 318 319 320 321 322 323 324 TABLE ST 200X65X15NB
325 326 327 328 329 330 331 332 333 334 335 336 337 338 339 340 341 342 353 354 TABLE ST 200X65X15NB
355 356 357 358 359 360 361 362 363 364 365 366 367 368 369 370 371 372 373 374 TABLE ST 200X65X15NB
375 376 377 378 379 380 381 382 383 384 385 120 121 122 123 124 125 126 127 171 TABLE ST 200X65X15NB
172 173 174 175 176 177 178 214 215 216 217 218 219 220 221 257 258 259 260 261 TABLE ST 200X65X15NB
262 263 264 300 301 302 303 304 305 306 307 343 344 345 346 347 348 349 350 386 TABLE ST 200X65X15NB
387 388 389 390 391 392 393 17 35 53 71 TABLE ST 200X65X15NB
128 129 130 131 394 395 396 397 132 133 134 135 398 399 400 401 404 TABLE ST ISA75X75X6
16 34 52 70 TABLE ST WB250
136 137 179 180 222 223 265 266 308 309 351 352 402 403 TABLE ST WB200
14 15 24 25 32 33 42 43 50 51 60 61 68 69 85 86 TABLE ST WB350

MEMBER RELEASE
87 88 89 90 91 92 93 94 95 96 97 98 99 100 101 102 103 104 105 106 START MX MY MZ
87 88 89 90 91 92 93 94 95 96 97 98 99 100 101 102 103 104 105 106 END MX MY MZ
107 108 109 110 111 112 113 114 115 116 117 118 119 138 139 140 141 142 143 144 START MX MY MZ
107 108 109 110 111 112 113 114 115 116 117 118 119 138 139 140 141 142 143 144 END MX MY MZ
145 146 147 148 149 150 151 152 153 154 155 156 157 158 159 160 161 162 163 164 START MX MY MZ
145 146 147 148 149 150 151 152 153 154 155 156 157 158 159 160 161 162 163 164 END MX MY MZ
165 166 167 168 169 170 181 182 183 184 185 186 187 188 189 190 191 192 193 194 START MX MY MZ
165 166 167 168 169 170 181 182 183 184 185 186 187 188 189 190 191 192 193 194 END MX MY MZ
195 196 197 198 199 200 201 202 203 204 205 206 207 208 209 210 211 212 213 224 START MX MY MZ
195 196 197 198 199 200 201 202 203 204 205 206 207 208 209 210 211 212 213 224 END MX MY MZ
225 226 227 228 229 230 231 232 233 234 235 236 237 238 239 240 241 242 243 244 START MX MY MZ
225 226 227 228 229 230 231 232 233 234 235 236 237 238 239 240 241 242 243 244 END MX MY MZ
245 246 247 248 249 250 251 252 253 254 255 256 267 268 269 270 271 272 273 274 START MX MY MZ
245 246 247 248 249 250 251 252 253 254 255 256 267 268 269 270 271 272 273 274 END MX MY MZ
275 276 277 278 279 280 281 282 283 284 285 286 287 288 289 290 291 292 293 294 START MX MY MZ
275 276 277 278 279 280 281 282 283 284 285 286 287 288 289 290 291 292 293 294 END MX MY MZ
295 296 297 298 299 310 311 312 313 314 315 316 317 318 319 320 321 322 323 324 START MX MY MZ
295 296 297 298 299 310 311 312 313 314 315 316 317 318 319 320 321 322 323 324 END MX MY MZ
325 326 327 328 329 330 331 332 333 334 335 336 337 338 339 340 341 342 353 354 START MX MY MZ
325 326 327 328 329 330 331 332 333 334 335 336 337 338 339 340 341 342 353 354 END MX MY MZ
355 356 357 358 359 360 361 362 363 364 365 366 367 368 369 370 371 372 373 374 START MX MY MZ
355 356 357 358 359 360 361 362 363 364 365 366 367 368 369 370 371 372 373 374 END MX MY MZ
375 376 377 378 379 380 381 382 383 384 385 120 121 122 123 124 125 126 127 171 START MX MY MZ
375 376 377 378 379 380 381 382 383 384 385 120 121 122 123 124 125 126 127 171 END MX MY MZ
172 173 174 175 176 177 178 214 215 216 217 218 219 220 221 257 258 259 260 261 START MX MY MZ
172 173 174 175 176 177 178 214 215 216 217 218 219 220 221 257 258 259 260 261 END MX MY MZ
262 263 264 300 301 302 303 304 305 306 307 343 344 345 346 347 348 349 350 386 START MX MY MZ
262 263 264 300 301 302 303 304 305 306 307 343 344 345 346 347 348 349 350 386 END MX MY MZ
387 388 389 390 391 392 393 128 129 130 131 394 395 396 397 132 133 134 135 398 START MX MY MZ
387 388 389 390 391 392 393 128 129 130 131 394 395 396 397 132 133 134 135 398 END MX MY MZ
399 400 401 17 35 53 71 START MX MY MZ
399 400 401 17 35 53 71 END MX MY MZ

SUPPORTS
8 10 12 14 15 17 19 106 108 110 112 113 115 117 PINNED
1 7 27 33 38 44 51 57 62 68 75 81 86 92 99 105 FIXED

LOAD 1 TITLE DEAD LOAD
MEMBER LOAD
4 5 21 22 29 30 39 40 47 48 57 58 65 66 75 76 3 6 20 23 UNI GY -1.071
28 31 38 41 46 49 56 59 64 67 74 77 87 88 89 90 91 92 93 94 UNI GY -1.071
95 96 97 98 99 100 101 102 103 104 105 106 107 108 109 110 111 112 113 114 UNI GY -1.071
115 116 117 118 119 138 139 140 141 142 143 144 145 146 147 148 149 150 151 152 UNI GY -1.071
153 154 155 156 157 158 159 160 161 162 163 164 165 166 167 168 169 170 181 182 UNI GY -1.071
183 184 185 186 187 188 189 190 191 192 193 194 195 196 197 198 199 200 201 202 UNI GY -1.071
203 204 205 206 207 208 209 210 211 212 213 224 225 226 227 228 229 230 231 232 UNI GY -1.071
233 234 235 236 237 238 239 240 241 242 243 244 245 246 247 248 249 250 251 252 UNI GY -1.071
253 254 255 256 267 268 269 270 271 272 273 274 275 276 277 278 279 280 281 282 UNI GY -1.071
283 284 285 286 287 288 289 290 291 292 293 294 295 296 297 298 299 310 311 312 UNI GY -1.071
313 314 315 316 317 318 319 320 321 322 323 324 325 326 327 328 329 330 331 332 UNI GY -1.071
333 334 335 336 337 338 339 340 341 342 353 354 355 356 357 358 359 360 361 362 UNI GY -1.071
363 364 365 366 367 368 369 370 371 372 373 374 375 376 377 378 379 380 381 382 UNI GY -1.071
383 384 385 UNI GY -1.071

LOAD 2 TITLE LIVE LOAD
MEMBER LOAD
4 5 21 22 29 30 39 40 47 48 57 58 65 66 75 76 3 6 20 23 UNI GY -4.072
28 31 38 41 46 49 56 59 64 67 74 77 87 88 89 90 91 92 93 94 UNI GY -4.072
95 96 97 98 99 100 101 102 103 104 105 106 107 108 109 110 111 112 113 114 UNI GY -4.072
115 116 117 118 119 138 139 140 141 142 143 144 145 146 147 148 149 150 151 152 UNI GY -4.072
153 154 155 156 157 158 159 160 161 162 163 164 165 166 167 168 169 170 181 182 UNI GY -4.072
183 184 185 186 187 188 189 190 191 192 193 194 195 196 197 198 199 200 201 202 UNI GY -4.072
203 204 205 206 207 208 209 210 211 212 213 224 225 226 227 228 229 230 231 232 UNI GY -4.072
233 234 235 236 237 238 239 240 241 242 243 244 245 246 247 248 249 250 251 252 UNI GY -4.072
253 254 255 256 267 268 269 270 271 272 273 274 275 276 277 278 279 280 281 282 UNI GY -4.072
283 284 285 286 287 288 289 290 291 292 293 294 295 296 297 298 299 310 311 312 UNI GY -4.072
313 314 315 316 317 318 319 320 321 322 323 324 325 326 327 328 329 330 331 332 UNI GY -4.072
333 334 335 336 337 338 339 340 341 342 353 354 355 356 357 358 359 360 361 362 UNI GY -4.072
363 364 365 366 367 368 369 370 371 372 373 374 375 376 377 378 379 380 381 382 UNI GY -4.072
383 384 385 UNI GY -4.072

LOAD 3 TITLE WIND +X
MEMBER LOAD
1 2 18 19 26 27 36 37 44 45 54 55 62 63 72 73 UNI GX 7.500

LOAD 4 TITLE WIND -X
MEMBER LOAD
1 2 18 19 26 27 36 37 44 45 54 55 62 63 72 73 UNI GX -7.500

LOAD 5 TITLE WIND +Z
MEMBER LOAD
7 8 9 10 11 12 13 78 79 80 81 82 83 84 UNI GZ 7.500

LOAD 6 TITLE WIND -Z
MEMBER LOAD
7 8 9 10 11 12 13 78 79 80 81 82 83 84 UNI GZ -7.500

LOAD 7 TITLE WIND UPLIFT
MEMBER LOAD
4 5 21 22 29 30 39 40 47 48 57 58 65 66 75 76 3 6 20 23 UNI GY 5.357
28 31 38 41 46 49 56 59 64 67 74 77 UNI GY 5.357

LOAD 8 TITLE SEISMIC +X
MEMBER LOAD
1 2 18 19 26 27 36 37 44 45 54 55 62 63 72 73 UNI GX 10.286

LOAD 9 TITLE SEISMIC +Z
MEMBER LOAD
7 8 9 10 11 12 13 78 79 80 81 82 83 84 UNI GZ 10.286

LOAD 11 TITLE CRANE VERTICAL
MEMBER LOAD
136 137 179 180 222 223 265 266 308 309 351 352 402 403 UNI GY -1.373

LOAD 12 TITLE CRANE SURGE
MEMBER LOAD
136 137 179 180 222 223 265 266 308 309 351 352 402 403 UNI GX 0.137

LOAD COMBINATION
101 1.4 DL
1 1.4
102 1.2 DL + 1.6 LL
1 1.2 2 1.6
103 1.2 DL + 1.0 WLX + 0.5 LL
1 1.2 3 1.0 2 0.5
104 1.2 DL - 1.0 WLX + 0.5 LL
1 1.2 4 1.0 2 0.5
105 1.2 DL + 1.0 WLZ + 0.5 LL
1 1.2 5 1.0 2 0.5
106 0.9 DL + 1.0 WLX
1 0.9 3 1.0
107 1.2 DL + 1.0 EQX + 0.5 LL
1 1.2 8 1.0 2 0.5
110 1.2(DL + LL + CRANE)
1 1.2 2 1.2 11 1.2 12 1.2

PERFORM ANALYSIS PRINT ALL
PARAMETER 1
CODE AISC
FYLD 345 ALL
TRACK 2 ALL
CHECK CODE ALL
FINISH