STAAD SPACE
START JOB INFORMATION
ENGINEER DATE 02-Apr-26
END JOB INFORMATION
INPUT WIDTH 79
UNIT METER KN

JOINT COORDINATES
1 0.000 0.000 0.000;
2 0.000 0.000 6.000;
3 3.977 0.000 6.398;
4 19.885 0.000 7.989;
5 35.793 0.000 6.398;
6 39.770 0.000 6.000;
7 39.770 0.000 0.000;
8 6.628 0.000 0.000;
9 6.628 0.000 6.663;
10 13.257 0.000 0.000;
11 13.257 0.000 7.326;
12 19.885 0.000 0.000;
13 26.513 0.000 0.000;
14 26.513 0.000 7.326;
15 33.142 0.000 0.000;
16 33.142 0.000 6.663;
17 -2.500 0.000 5.500;
18 0.000 0.000 3.500;
19 0.000 7.203 0.000;
20 0.000 7.203 6.000;
# ... 887 like lines cut

MEMBER INCIDENCES
1 1 2;
2 7 6;
3 2 3;
4 3 4;
5 5 4;
6 6 5;
7 8 9;
8 10 11;
9 12 4;
10 13 14;
11 15 16;
12 2 17;
13 18 17;
14 19 20;
15 25 24;
16 20 21;
17 21 22;
18 23 22;
19 24 23;
20 26 27;
# ... 867 like lines cut

DEFINE MATERIAL START
ISOTROPIC STEEL
E 2.05e+008
POISSON 0.3
DENSITY 76.8195
ALPHA 1.2e-005
END DEFINE MATERIAL

MEMBER PROPERTY AMERICAN
1 2 14 15 20 21 28 29 34 35 42 43 48 49 56 57 62 63 70 71 TAPERED 0.300 0.006 0.400 0.200 0.010 0.200 0.010
76 77 84 85 90 91 98 99 104 105 112 113 118 119 TAPERED 0.300 0.006 0.400 0.200 0.010 0.200 0.010
4 5 17 18 23 24 31 32 37 38 45 46 51 52 59 60 65 66 73 74 TAPERED 0.400 0.006 0.300 0.200 0.010 0.200 0.010
79 80 87 88 93 94 101 102 107 108 115 116 121 122 TAPERED 0.400 0.006 0.300 0.200 0.010 0.200 0.010
3 6 16 19 22 25 30 33 36 39 44 47 50 53 58 61 64 67 72 75 TAPERED 0.300 0.006 0.500 0.225 0.010 0.225 0.010
78 81 86 89 92 95 100 103 106 109 114 117 120 123 TAPERED 0.300 0.006 0.500 0.225 0.010 0.225 0.010
7 8 9 10 11 124 125 126 127 128 199 200 201 TABLE ST WB200
131 132 133 134 135 136 137 138 139 140 141 142 143 144 145 146 147 148 149 150 TABLE ST 200X65X15NB
151 152 153 154 155 156 157 170 171 172 173 174 175 176 177 178 179 180 181 182 TABLE ST 200X65X15NB
183 184 185 186 187 188 189 190 191 192 193 194 195 196 204 205 206 207 208 209 TABLE ST 200X65X15NB
210 211 212 213 214 215 216 217 218 219 220 221 222 223 224 225 226 227 228 229 TABLE ST 200X65X15NB
230 235 236 237 238 239 240 241 242 243 244 245 246 247 248 249 250 251 252 253 TABLE ST 200X65X15NB
254 255 256 257 258 259 260 261 266 267 268 269 270 271 272 273 274 275 276 277 TABLE ST 200X65X15NB
278 279 280 281 282 283 284 285 286 287 288 289 290 291 292 297 298 299 300 301 TABLE ST 200X65X15NB
302 303 304 305 306 307 308 309 310 311 312 313 314 315 316 317 318 319 320 321 TABLE ST 200X65X15NB
322 323 328 329 330 331 332 333 334 335 336 337 338 339 340 341 342 343 344 345 TABLE ST 200X65X15NB
346 347 348 349 350 351 352 353 354 359 360 361 362 363 364 365 366 367 368 369 TABLE ST 200X65X15NB
370 371 372 373 374 375 376 377 378 379 380 381 382 383 384 385 390 391 392 393 TABLE ST 200X65X15NB
394 395 396 397 398 399 400 401 402 403 404 405 406 407 408 409 410 411 412 413 TABLE ST 200X65X15NB
414 415 416 421 422 423 424 425 426 427 428 429 430 431 432 433 434 435 436 437 TABLE ST 200X65X15NB
438 439 440 441 442 443 444 445 446 447 452 453 454 455 456 457 458 459 460 461 TABLE ST 200X65X15NB
462 463 464 465 466 467 468 469 470 471 472 473 474 475 476 477 478 483 484 485 TABLE ST 200X65X15NB
486 487 488 489 490 491 492 493 494 495 496 497 498 499 500 501 502 503 504 505 TABLE ST 200X65X15NB
506 507 508 509 514 515 516 517 518 519 520 521 522 523 524 525 526 527 528 529 TABLE ST 200X65X15NB
530 531 532 533 534 535 536 537 538 539 540 545 546 547 548 549 550 551 552 553 TABLE ST 200X65X15NB
554 555 556 557 558 559 560 561 562 563 564 565 566 567 568 569 570 571 576 577 TABLE ST 200X65X15NB
578 579 580 581 582 583 584 585 586 587 588 589 590 591 592 593 594 595 596 597 TABLE ST 200X65X15NB
# ... 6 like lines cut
162 163 164 165 638 639 640 641 166 167 168 169 642 643 644 645 646 TABLE ST ISA75X75X6
12 26 40 54 68 82 96 110 129 TABLE ST WB250
647 648 649 650 651 652 653 654 655 656 657 658 659 660 661 662 663 TABLE ST WB350
664 665 666 667 668 669 670 671 672 673 674 675 676 677 678 679 680 681 682 683 TABLE ST WB300
684 685 686 687 688 689 690 691 692 693 694 695 696 697 698 699 700 701 702 703 TABLE ST WB300
704 705 706 707 708 709 710 711 712 713 714 715 716 717 718 719 720 721 722 723 TABLE ST WB300
724 725 726 727 728 729 730 731 732 733 734 735 736 737 738 739 740 741 742 743 TABLE ST WB300
744 745 746 747 748 749 750 751 752 753 754 755 756 757 758 759 760 761 762 763 TABLE ST WB300
764 765 766 767 768 769 770 771 772 773 774 775 776 777 778 779 780 781 782 783 TABLE ST WB300
784 785 786 787 788 789 790 791 792 793 794 795 796 797 798 799 800 801 802 803 TABLE ST WB300
804 805 806 807 808 809 810 811 812 813 814 815 816 817 818 819 820 821 822 823 TABLE ST WB300
824 825 826 827 828 829 830 831 832 833 834 835 836 837 838 839 840 841 842 843 TABLE ST WB300
844 845 846 847 848 849 850 851 852 853 854 855 856 857 858 859 860 861 862 863 TABLE ST WB300
864 865 866 867 868 869 870 871 872 873 874 875 876 877 878 879 880 881 882 883 TABLE ST WB300
884 885 886 887 TABLE ST WB300

MEMBER RELEASE
131 132 133 134 135 136 137 138 139 140 141 142 143 144 145 146 147 148 149 150 START MX MY MZ
131 132 133 134 135 136 137 138 139 140 141 142 143 144 145 146 147 148 149 150 END MX MY MZ
151 152 153 154 155 156 157 170 171 172 173 174 175 176 177 178 179 180 181 182 START MX MY MZ
151 152 153 154 155 156 157 170 171 172 173 174 175 176 177 178 179 180 181 182 END MX MY MZ
183 184 185 186 187 188 189 190 191 192 193 194 195 196 204 205 206 207 208 209 START MX MY MZ
183 184 185 186 187 188 189 190 191 192 193 194 195 196 204 205 206 207 208 209 END MX MY MZ
210 211 212 213 214 215 216 217 218 219 220 221 222 223 224 225 226 227 228 229 START MX MY MZ
210 211 212 213 214 215 216 217 218 219 220 221 222 223 224 225 226 227 228 229 END MX MY MZ
230 235 236 237 238 239 240 241 242 243 244 245 246 247 248 249 250 251 252 253 START MX MY MZ
230 235 236 237 238 239 240 241 242 243 244 245 246 247 248 249 250 251 252 253 END MX MY MZ
254 255 256 257 258 259 260 261 266 267 268 269 270 271 272 273 274 275 276 277 START MX MY MZ
254 255 256 257 258 259 260 261 266 267 268 269 270 271 272 273 274 275 276 277 END MX MY MZ
278 279 280 281 282 283 284 285 286 287 288 289 290 291 292 297 298 299 300 301 START MX MY MZ
278 279 280 281 282 283 284 285 286 287 288 289 290 291 292 297 298 299 300 301 END MX MY MZ
302 303 304 305 306 307 308 309 310 311 312 313 314 315 316 317 318 319 320 321 START MX MY MZ
302 303 304 305 306 307 308 309 310 311 312 313 314 315 316 317 318 319 320 321 END MX MY MZ
322 323 328 329 330 331 332 333 334 335 336 337 338 339 340 341 342 343 344 345 START MX MY MZ
322 323 328 329 330 331 332 333 334 335 336 337 338 339 340 341 342 343 344 345 END MX MY MZ
346 347 348 349 350 351 352 353 354 359 360 361 362 363 364 365 366 367 368 369 START MX MY MZ
346 347 348 349 350 351 352 353 354 359 360 361 362 363 364 365 366 367 368 369 END MX MY MZ
370 371 372 373 374 375 376 377 378 379 380 381 382 383 384 385 390 391 392 393 START MX MY MZ
370 371 372 373 374 375 376 377 378 379 380 381 382 383 384 385 390 391 392 393 END MX MY MZ
394 395 396 397 398 399 400 401 402 403 404 405 406 407 408 409 410 411 412 413 START MX MY MZ
394 395 396 397 398 399 400 401 402 403 404 405 406 407 408 409 410 411 412 413 END MX MY MZ
414 415 416 421 422 423 424 425 426 427 428 429 430 431 432 433 434 435 436 437 START MX MY MZ
414 415 416 421 422 423 424 425 426 427 428 429 430 431 432 433 434 435 436 437 END MX MY MZ
438 439 440 441 442 443 444 445 446 447 452 453 454 455 456 457 458 459 460 461 START MX MY MZ
438 439 440 441 442 443 444 445 446 447 452 453 454 455 456 457 458 459 460 461 END MX MY MZ
462 463 464 465 466 467 468 469 470 471 472 473 474 475 476 477 478 483 484 485 START MX MY MZ
462 463 464 465 466 467 468 469 470 471 472 473 474 475 476 477 478 483 484 485 END MX MY MZ
486 487 488 489 490 491 492 493 494 495 496 497 498 499 500 501 502 503 504 505 START MX MY MZ
486 487 488 489 490 491 492 493 494 495 496 497 498 499 500 501 502 503 504 505 END MX MY MZ
506 507 508 509 514 515 516 517 518 519 520 521 522 523 524 525 526 527 528 529 START MX MY MZ
506 507 508 509 514 515 516 517 518 519 520 521 522 523 524 525 526 527 528 529 END MX MY MZ
530 531 532 533 534 535 536 537 538 539 540 545 546 547 548 549 550 551 552 553 START MX MY MZ
530 531 532 533 534 535 536 537 538 539 540 545 546 547 548 549 550 551 552 553 END MX MY MZ
554 555 556 557 558 559 560 561 562 563 564 565 566 567 568 569 570 571 576 577 START MX MY MZ
554 555 556 557 558 559 560 561 562 563 564 565 566 567 568 569 570 571 576 577 END MX MY MZ
578 579 580 581 582 583 584 585 586 587 588 589 590 591 592 593 594 595 596 597 START MX MY MZ
578 579 580 581 582 583 584 585 586 587 588 589 590 591 592 593 594 595 596 597 END MX MY MZ
# ... 14 like lines cut

SUPPORTS
8 10 12 13 15 145 147 149 150 152 PINNED
1 7 19 25 26 32 35 41 42 48 51 57 58 64 67 73 74 80 83 89 90 96 99 105 106 112 115 121 122 128 131 137 138 144 FIXED

LOAD 1 TITLE DEAD LOAD
MEMBER LOAD
4 5 17 18 23 24 31 32 37 38 45 46 51 52 59 60 65 66 73 74 UNI GY -1.080
79 80 87 88 93 94 101 102 107 108 115 116 121 122 3 6 16 19 22 25 UNI GY -1.080
30 33 36 39 44 47 50 53 58 61 64 67 72 75 78 81 86 89 92 95 UNI GY -1.080
100 103 106 109 114 117 120 123 131 132 133 134 135 136 137 138 139 140 141 142 UNI GY -1.080
143 144 145 146 147 148 149 150 151 152 153 154 155 156 157 170 171 172 173 174 UNI GY -1.080
175 176 177 178 179 180 181 182 183 184 185 186 187 188 189 190 191 192 193 194 UNI GY -1.080
195 196 204 205 206 207 208 209 210 211 212 213 214 215 216 217 218 219 220 221 UNI GY -1.080
222 223 224 225 226 227 228 229 230 235 236 237 238 239 240 241 242 243 244 245 UNI GY -1.080
246 247 248 249 250 251 252 253 254 255 256 257 258 259 260 261 266 267 268 269 UNI GY -1.080
270 271 272 273 274 275 276 277 278 279 280 281 282 283 284 285 286 287 288 289 UNI GY -1.080
290 291 292 297 298 299 300 301 302 303 304 305 306 307 308 309 310 311 312 313 UNI GY -1.080
314 315 316 317 318 319 320 321 322 323 328 329 330 331 332 333 334 335 336 337 UNI GY -1.080
338 339 340 341 342 343 344 345 346 347 348 349 350 351 352 353 354 359 360 361 UNI GY -1.080
362 363 364 365 366 367 368 369 370 371 372 373 374 375 376 377 378 379 380 381 UNI GY -1.080
382 383 384 385 390 391 392 393 394 395 396 397 398 399 400 401 402 403 404 405 UNI GY -1.080
406 407 408 409 410 411 412 413 414 415 416 421 422 423 424 425 426 427 428 429 UNI GY -1.080
430 431 432 433 434 435 436 437 438 439 440 441 442 443 444 445 446 447 452 453 UNI GY -1.080
454 455 456 457 458 459 460 461 462 463 464 465 466 467 468 469 470 471 472 473 UNI GY -1.080
474 475 476 477 478 483 484 485 486 487 488 489 490 491 492 493 494 495 496 497 UNI GY -1.080
498 499 500 501 502 503 504 505 506 507 508 509 514 515 516 517 518 519 520 521 UNI GY -1.080
# ... 5 like lines cut

LOAD 2 TITLE LIVE LOAD
MEMBER LOAD
4 5 17 18 23 24 31 32 37 38 45 46 51 52 59 60 65 66 73 74 UNI GY -4.106
79 80 87 88 93 94 101 102 107 108 115 116 121 122 3 6 16 19 22 25 UNI GY -4.106
30 33 36 39 44 47 50 53 58 61 64 67 72 75 78 81 86 89 92 95 UNI GY -4.106
100 103 106 109 114 117 120 123 131 132 133 134 135 136 137 138 139 140 141 142 UNI GY -4.106
143 144 145 146 147 148 149 150 151 152 153 154 155 156 157 170 171 172 173 174 UNI GY -4.106
175 176 177 178 179 180 181 182 183 184 185 186 187 188 189 190 191 192 193 194 UNI GY -4.106
195 196 204 205 206 207 208 209 210 211 212 213 214 215 216 217 218 219 220 221 UNI GY -4.106
222 223 224 225 226 227 228 229 230 235 236 237 238 239 240 241 242 243 244 245 UNI GY -4.106
246 247 248 249 250 251 252 253 254 255 256 257 258 259 260 261 266 267 268 269 UNI GY -4.106
270 271 272 273 274 275 276 277 278 279 280 281 282 283 284 285 286 287 288 289 UNI GY -4.106
290 291 292 297 298 299 300 301 302 303 304 305 306 307 308 309 310 311 312 313 UNI GY -4.106
314 315 316 317 318 319 320 321 322 323 328 329 330 331 332 333 334 335 336 337 UNI GY -4.106
338 339 340 341 342 343 344 345 346 347 348 349 350 351 352 353 354 359 360 361 UNI GY -4.106
362 363 364 365 366 367 368 369 370 371 372 373 374 375 376 377 378 379 380 381 UNI GY -4.106
382 383 384 385 390 391 392 393 394 395 396 397 398 399 400 401 402 403 404 405 UNI GY -4.106
406 407 408 409 410 411 412 413 414 415 416 421 422 423 424 425 426 427 428 429 UNI GY -4.106
430 431 432 433 434 435 436 437 438 439 440 441 442 443 444 445 446 447 452 453 UNI GY -4.106
454 455 456 457 458 459 460 461 462 463 464 465 466 467 468 469 470 471 472 473 UNI GY -4.106
474 475 476 477 478 483 484 485 486 487 488 489 490 491 492 493 494 495 496 497 UNI GY -4.106
498 499 500 501 502 503 504 505 506 507 508 509 514 515 516 517 518 519 520 521 UNI GY -4.106
# ... 5 like lines cut

LOAD 3 TITLE WIND +X
MEMBER LOAD
1 2 14 15 20 21 28 29 34 35 42 43 48 49 56 57 62 63 70 71 UNI GX 6.681
76 77 84 85 90 91 98 99 104 105 112 113 118 119 UNI GX 6.681

LOAD 4 TITLE WIND -X
MEMBER LOAD
1 2 14 15 20 21 28 29 34 35 42 43 48 49 56 57 62 63 70 71 UNI GX -6.681
76 77 84 85 90 91 98 99 104 105 112 113 118 119 UNI GX -6.681

LOAD 5 TITLE WIND +Z
MEMBER LOAD
7 8 9 10 11 124 125 126 127 128 UNI GZ 6.681

LOAD 6 TITLE WIND -Z
MEMBER LOAD
7 8 9 10 11 124 125 126 127 128 UNI GZ -6.681

LOAD 7 TITLE WIND UPLIFT
MEMBER LOAD
4 5 17 18 23 24 31 32 37 38 45 46 51 52 59 60 65 66 73 74 UNI GY 4.772
79 80 87 88 93 94 101 102 107 108 115 116 121 122 3 6 16 19 22 25 UNI GY 4.772
30 33 36 39 44 47 50 53 58 61 64 67 72 75 78 81 86 89 92 95 UNI GY 4.772
100 103 106 109 114 117 120 123 UNI GY 4.772

LOAD 8 TITLE SEISMIC +X
MEMBER LOAD
1 2 14 15 20 21 28 29 34 35 42 43 48 49 56 57 62 63 70 71 UNI GX 8.250
76 77 84 85 90 91 98 99 104 105 112 113 118 119 UNI GX 8.250

LOAD 9 TITLE SEISMIC +Z
MEMBER LOAD
7 8 9 10 11 124 125 126 127 128 UNI GZ 8.250

LOAD 10 TITLE MEZZANINE LIVE
MEMBER LOAD
647 648 649 650 651 652 653 654 655 656 657 658 659 660 661 662 663 664 665 666 UNI GY -36.015
667 668 669 670 671 672 673 674 675 676 677 678 679 680 681 682 683 684 685 686 UNI GY -36.015
687 688 689 690 691 692 693 694 695 696 697 698 699 700 701 702 703 704 705 706 UNI GY -36.015
707 708 709 710 711 712 713 714 715 716 717 718 719 720 721 722 723 724 725 726 UNI GY -36.015
727 728 729 730 731 732 733 734 735 736 737 738 739 740 741 742 743 744 745 746 UNI GY -36.015
747 748 749 750 751 752 753 754 755 756 757 758 759 760 761 762 763 764 765 766 UNI GY -36.015
767 768 769 770 771 772 773 774 775 776 777 778 779 780 781 782 783 784 785 786 UNI GY -36.015
787 788 789 790 791 792 793 794 795 796 797 798 799 800 801 802 803 804 805 806 UNI GY -36.015
807 808 809 810 811 812 813 814 815 816 817 818 819 820 821 822 823 824 825 826 UNI GY -36.015
827 828 829 830 831 832 833 834 835 836 837 838 839 840 841 842 843 844 845 846 UNI GY -36.015
847 848 849 850 851 852 853 854 855 856 857 858 859 860 861 862 863 864 865 866 UNI GY -36.015
867 868 869 870 871 872 873 874 875 876 877 878 879 880 881 882 883 884 885 886 UNI GY -36.015
887 UNI GY -36.015

LOAD COMBINATION
101 1.4 DL
1 1.4
102 1.2 DL + 1.6 LL
1 1.2 2 1.6
103 1.2 DL + 1.0 WLX + 0.5 LL
1 1.2 3 1.0 2 0.5
104 1.2 DL - 1.0 WLX + 0.5 LL
1 1.2 4 1.0 2 0.5
105 1.2 DL + 1.0 WLZ + 0.5 LL
1 1.2 5 1.0 2 0.5
106 0.9 DL + 1.0 WLX
1 0.9 3 1.0
107 1.2 DL + 1.0 EQX + 0.5 LL
1 1.2 8 1.0 2 0.5
109 1.2(DL + LL + MEZZ)
1 1.2 2 1.2 10 1.2

PERFORM ANALYSIS PRINT ALL
PARAMETER 1
CODE AISC
FYLD 345 ALL
TRACK 2 ALL
CHECK CODE ALL
FINISH