STAAD SPACE
START JOB INFORMATION
ENGINEER DATE 02-Apr-26
END JOB INFORMATION
INPUT WIDTH 79
UNIT METER KN

JOINT COORDINATES
1 0.000 0.000 0.000;
2 0.000 0.000 10.500;
3 2.438 0.000 10.744;
4 12.190 0.000 11.719;
5 21.942 0.000 10.744;
6 24.380 0.000 10.500;
7 24.380 0.000 0.000;
8 6.095 0.000 0.000;
9 6.095 0.000 11.110;
10 12.190 0.000 0.000;
11 18.285 0.000 0.000;
12 18.285 0.000 11.109;
13 0.000 0.000 6.000;
14 24.380 0.000 6.000;
15 0.500 0.000 6.000;
16 23.880 0.000 6.000;
17 -3.000 0.000 10.000;
18 0.000 0.000 8.000;
19 0.000 7.205 0.000;
20 0.000 7.205 10.500;
# ... 196 like lines cut

MEMBER INCIDENCES
1 1 2;
2 7 6;
3 2 3;
4 3 4;
5 5 4;
6 6 5;
7 8 9;
8 10 4;
9 11 12;
10 13 15;
11 14 16;
12 2 17;
13 18 17;
14 19 20;
15 25 24;
16 20 21;
17 21 22;
18 23 22;
19 24 23;
20 26 28;
# ... 193 like lines cut

DEFINE MATERIAL START
ISOTROPIC STEEL
E 2.05e+008
POISSON 0.3
DENSITY 76.8195
ALPHA 1.2e-005
END DEFINE MATERIAL

MEMBER PROPERTY AMERICAN
1 2 14 15 22 23 32 33 40 41 TAPERED 0.300 0.006 0.400 0.200 0.010 0.200 0.010
4 5 17 18 25 26 35 36 43 44 TAPERED 0.700 0.006 0.300 0.275 0.010 0.275 0.010
3 6 16 19 24 27 34 37 42 45 TAPERED 0.320 0.006 0.800 0.300 0.010 0.300 0.010
7 8 9 46 47 48 12 30 51 TABLE ST WB250
53 54 55 56 57 58 59 60 61 62 63 64 65 66 67 68 69 88 89 90 TABLE ST 200X65X15NB
91 92 93 94 95 96 97 98 99 100 101 102 103 104 115 116 117 118 119 120 TABLE ST 200X65X15NB
121 122 123 124 125 126 127 128 129 130 131 142 143 144 145 146 147 148 149 150 TABLE ST 200X65X15NB
151 152 153 154 155 156 157 158 70 71 72 73 74 75 76 77 105 106 107 108 TABLE ST 200X65X15NB
109 110 111 112 132 133 134 135 136 137 138 139 159 160 161 162 163 164 165 166 TABLE ST 200X65X15NB
13 31 52 TABLE ST 200X65X15NB
78 79 80 81 167 168 169 170 82 83 84 85 171 172 173 174 TABLE ST ISA75X75X6
177 178 179 180 181 TABLE ST WB400
182 183 184 185 186 187 188 189 190 191 192 193 194 195 196 197 198 199 200 201 TABLE ST WB300
202 203 204 205 206 207 208 209 210 211 212 213 TABLE ST WB300
86 87 113 114 140 141 175 176 TABLE ST WB450
10 11 20 21 28 29 38 39 49 50 TABLE ST WB350

MEMBER RELEASE
53 54 55 56 57 58 59 60 61 62 63 64 65 66 67 68 69 88 89 90 START MX MY MZ
53 54 55 56 57 58 59 60 61 62 63 64 65 66 67 68 69 88 89 90 END MX MY MZ
91 92 93 94 95 96 97 98 99 100 101 102 103 104 115 116 117 118 119 120 START MX MY MZ
91 92 93 94 95 96 97 98 99 100 101 102 103 104 115 116 117 118 119 120 END MX MY MZ
121 122 123 124 125 126 127 128 129 130 131 142 143 144 145 146 147 148 149 150 START MX MY MZ
121 122 123 124 125 126 127 128 129 130 131 142 143 144 145 146 147 148 149 150 END MX MY MZ
151 152 153 154 155 156 157 158 70 71 72 73 74 75 76 77 105 106 107 108 START MX MY MZ
151 152 153 154 155 156 157 158 70 71 72 73 74 75 76 77 105 106 107 108 END MX MY MZ
109 110 111 112 132 133 134 135 136 137 138 139 159 160 161 162 163 164 165 166 START MX MY MZ
109 110 111 112 132 133 134 135 136 137 138 139 159 160 161 162 163 164 165 166 END MX MY MZ
78 79 80 81 167 168 169 170 82 83 84 85 171 172 173 174 13 31 52 START MX MY MZ
78 79 80 81 167 168 169 170 82 83 84 85 171 172 173 174 13 31 52 END MX MY MZ

SUPPORTS
8 10 11 61 63 64 PINNED
1 7 19 25 30 36 43 49 54 60 FIXED

LOAD 1 TITLE DEAD LOAD
MEMBER LOAD
4 5 17 18 25 26 35 36 43 44 3 6 16 19 24 27 34 37 42 45 UNI GY -14.825
53 54 55 56 57 58 59 60 61 62 63 64 65 66 67 68 69 88 89 90 UNI GY -14.825
91 92 93 94 95 96 97 98 99 100 101 102 103 104 115 116 117 118 119 120 UNI GY -14.825
121 122 123 124 125 126 127 128 129 130 131 142 143 144 145 146 147 148 149 150 UNI GY -14.825
151 152 153 154 155 156 157 158 UNI GY -14.825

LOAD 2 TITLE LIVE LOAD
MEMBER LOAD
4 5 17 18 25 26 35 36 43 44 3 6 16 19 24 27 34 37 42 45 UNI GY -11.119
53 54 55 56 57 58 59 60 61 62 63 64 65 66 67 68 69 88 89 90 UNI GY -11.119
91 92 93 94 95 96 97 98 99 100 101 102 103 104 115 116 117 118 119 120 UNI GY -11.119
121 122 123 124 125 126 127 128 129 130 131 142 143 144 145 146 147 148 149 150 UNI GY -11.119
151 152 153 154 155 156 157 158 UNI GY -11.119

LOAD 3 TITLE WIND +X
MEMBER LOAD
1 2 14 15 22 23 32 33 40 41 UNI GX 3.461

LOAD 4 TITLE WIND -X
MEMBER LOAD
1 2 14 15 22 23 32 33 40 41 UNI GX -3.461

LOAD 5 TITLE WIND +Z
MEMBER LOAD
7 8 9 46 47 48 UNI GZ 3.461

LOAD 6 TITLE WIND -Z
MEMBER LOAD
7 8 9 46 47 48 UNI GZ -3.461

LOAD 7 TITLE WIND UPLIFT
MEMBER LOAD
4 5 17 18 25 26 35 36 43 44 3 6 16 19 24 27 34 37 42 45 UNI GY 2.472

LOAD 8 TITLE SEISMIC +X
MEMBER LOAD
1 2 14 15 22 23 32 33 40 41 UNI GX 25.301

LOAD 9 TITLE SEISMIC +Z
MEMBER LOAD
7 8 9 46 47 48 UNI GZ 25.301

LOAD 10 TITLE MEZZANINE LIVE
MEMBER LOAD
177 178 179 180 181 182 183 184 185 186 187 188 189 190 191 192 193 194 195 196 UNI GY -37.062
197 198 199 200 201 202 203 204 205 206 207 208 209 210 211 212 213 UNI GY -37.062

LOAD 11 TITLE CRANE VERTICAL
MEMBER LOAD
86 87 113 114 140 141 175 176 UNI GY -6.617

LOAD 12 TITLE CRANE SURGE
MEMBER LOAD
86 87 113 114 140 141 175 176 UNI GX 0.662

LOAD COMBINATION
101 1.5(DL + LL)
1 1.5 2 1.5
102 1.2(DL + LL + WLX)
1 1.2 2 1.2 3 1.2
103 1.2(DL + LL - WLX)
1 1.2 2 1.2 4 1.2
104 1.2(DL + LL + WLZ)
1 1.2 2 1.2 5 1.2
105 1.5(DL + WLX)
1 1.5 3 1.5
106 0.9 DL + 1.5 WLX
1 0.9 3 1.5
107 1.2(DL + LL + EQX)
1 1.2 2 1.2 8 1.2
108 1.5(DL + EQX)
1 1.5 8 1.5
109 1.2(DL + LL + MEZZ)
1 1.2 2 1.2 10 1.2
110 1.2(DL + LL + CRANE)
1 1.2 2 1.2 11 1.2 12 1.2

PERFORM ANALYSIS PRINT ALL
PARAMETER 1
CODE IS800
FYLD 250 ALL
TRACK 2 ALL
CHECK CODE ALL
FINISH